sad/pglib_opf_case162_ieee_dtc__sad.m
%%%%%%%%%%%%%%%%%%%%%%%%%%%%%%%%%%%%%%%%%%%%%%%%%%%%%%%%%%%%%%%%%%%%%%%%%%%
%%%%                                                                  %%%%%
%%%%    IEEE PES Power Grid Library - Optimal Power Flow - v20.04     %%%%%
%%%%          (https://github.com/power-grid-lib/pglib-opf)           %%%%%
%%%%             Benchmark Group - Small Angle Difference             %%%%%
%%%%                         12 - July - 2020                         %%%%%
%%%%                                                                  %%%%%
%%%%%%%%%%%%%%%%%%%%%%%%%%%%%%%%%%%%%%%%%%%%%%%%%%%%%%%%%%%%%%%%%%%%%%%%%%%
function mpc = pglib_opf_case162_ieee_dtc__sad
mpc.version = '2';
mpc.baseMVA = 100.0;

%% bus data
%	bus_i	type	Pd	Qd	Gs	Bs	area	Vm	Va	baseKV	zone	Vmax	Vmin
mpc.bus = [
	1	 1	 0.0	 0.0	 0.0	 -100.0	 1	    1.00000	    0.00000	 345.0	 9	    1.06000	    0.94000;
	2	 1	 0.0	 0.0	 0.0	 0.0	 1	    1.00000	    0.00000	 345.0	 9	    1.06000	    0.94000;
	3	 1	 370.0	 96.9	 0.0	 0.0	 1	    1.00000	    0.00000	 161.0	 12	    1.06000	    0.94000;
	4	 1	 0.0	 0.0	 0.0	 0.0	 1	    1.00000	    0.00000	 345.0	 3	    1.06000	    0.94000;
	5	 1	 0.0	 0.0	 0.0	 -50.0	 1	    1.00000	    0.00000	 345.0	 8	    1.06000	    0.94000;
	6	 2	 0.0	 0.0	 0.0	 0.0	 1	    1.00000	    0.00000	 22.0	 9	    1.06000	    0.94000;
	7	 1	 0.0	 0.0	 0.0	 0.0	 1	    1.00000	    0.00000	 345.0	 9	    1.06000	    0.94000;
	8	 1	 398.0	 0.0	 0.0	 0.0	 1	    1.00000	    0.00000	 115.0	 12	    1.06000	    0.94000;
	9	 1	 0.0	 0.0	 0.0	 0.0	 1	    1.00000	    0.00000	 345.0	 8	    1.06000	    0.94000;
	10	 1	 226.0	 0.0	 0.0	 0.0	 1	    1.00000	    0.00000	 230.0	 12	    1.06000	    0.94000;
	11	 1	 0.0	 0.0	 0.0	 0.0	 1	    1.00000	    0.00000	 230.0	 10	    1.06000	    0.94000;
	12	 1	 193.0	 0.0	 0.0	 0.0	 1	    1.00000	    0.00000	 115.0	 12	    1.06000	    0.94000;
	13	 1	 204.0	 0.0	 0.0	 0.0	 1	    1.00000	    0.00000	 345.0	 12	    1.06000	    0.94000;
	14	 1	 381.0	 0.0	 0.0	 0.0	 1	    1.00000	    0.00000	 161.0	 12	    1.06000	    0.94000;
	15	 1	 -80.0	 0.0	 0.0	 0.0	 1	    1.00000	    0.00000	 230.0	 12	    1.06000	    0.94000;
	16	 1	 -54.2	 0.0	 0.0	 0.0	 1	    1.00000	    0.00000	 161.0	 12	    1.06000	    0.94000;
	17	 1	 -116.5	 0.0	 0.0	 0.0	 1	    1.00000	    0.00000	 161.0	 12	    1.06000	    0.94000;
	18	 1	 34.4	 11.67	 0.0	 0.0	 1	    1.00000	    0.00000	 161.0	 6	    1.06000	    0.94000;
	19	 1	 64.4	 0.0	 0.0	 0.0	 1	    1.00000	    0.00000	 161.0	 12	    1.06000	    0.94000;
	20	 1	 37.9	 12.5	 0.0	 0.0	 1	    1.00000	    0.00000	 69.0	 10	    1.06000	    0.94000;
	21	 1	 -69.8	 0.0	 0.0	 0.0	 1	    1.00000	    0.00000	 161.0	 12	    1.06000	    0.94000;
	22	 1	 17.39	 5.27	 0.0	 0.0	 1	    1.00000	    0.00000	 161.0	 6	    1.06000	    0.94000;
	23	 1	 63.5	 0.0	 0.0	 0.0	 1	    1.00000	    0.00000	 161.0	 12	    1.06000	    0.94000;
	24	 1	 0.0	 0.0	 0.0	 0.0	 1	    1.00000	    0.00000	 161.0	 6	    1.06000	    0.94000;
	25	 1	 0.0	 0.0	 0.0	 -50.0	 1	    1.00000	    0.00000	 345.0	 6	    1.06000	    0.94000;
	26	 1	 0.0	 0.0	 0.0	 -50.0	 1	    1.00000	    0.00000	 345.0	 1	    1.06000	    0.94000;
	27	 1	 324.0	 57.9	 0.0	 0.0	 1	    1.00000	    0.00000	 345.0	 12	    1.06000	    0.94000;
	28	 1	 38.47	 13.17	 0.0	 0.0	 1	    1.00000	    0.00000	 161.0	 6	    1.06000	    0.94000;
	29	 1	 28.31	 9.03	 0.0	 0.0	 1	    1.00000	    0.00000	 161.0	 6	    1.06000	    0.94000;
	30	 1	 101.2	 32.52	 0.0	 15.0	 1	    1.00000	    0.00000	 161.0	 6	    1.06000	    0.94000;
	31	 1	 72.5	 0.0	 0.0	 0.0	 1	    1.00000	    0.00000	 161.0	 12	    1.06000	    0.94000;
	32	 1	 52.7	 15.06	 0.0	 20.0	 1	    1.00000	    0.00000	 161.0	 6	    1.06000	    0.94000;
	33	 1	 45.17	 15.06	 0.0	 20.0	 1	    1.00000	    0.00000	 161.0	 6	    1.06000	    0.94000;
	34	 1	 14.18	 5.25	 0.0	 3.2	 1	    1.00000	    0.00000	 161.0	 1	    1.06000	    0.94000;
	35	 1	 54.48	 14.63	 0.0	 5.0	 1	    1.00000	    0.00000	 161.0	 1	    1.06000	    0.94000;
	36	 1	 31.96	 8.68	 0.0	 3.0	 1	    1.00000	    0.00000	 161.0	 2	    1.06000	    0.94000;
	37	 1	 0.0	 0.0	 0.0	 0.0	 1	    1.00000	    0.00000	 345.0	 11	    1.06000	    0.94000;
	38	 1	 14.76	 4.08	 0.0	 1.5	 1	    1.00000	    0.00000	 161.0	 2	    1.06000	    0.94000;
	39	 1	 0.0	 0.0	 0.0	 0.0	 1	    1.00000	    0.00000	 345.0	 6	    1.06000	    0.94000;
	40	 1	 52.88	 17.6	 0.0	 0.0	 1	    1.00000	    0.00000	 161.0	 1	    1.06000	    0.94000;
	41	 1	 39.2	 12.8	 0.0	 0.0	 1	    1.00000	    0.00000	 161.0	 1	    1.06000	    0.94000;
	42	 1	 0.0	 0.0	 0.0	 0.0	 1	    1.00000	    0.00000	 345.0	 2	    1.06000	    0.94000;
	43	 1	 41.5	 0.0	 0.0	 0.0	 1	    1.00000	    0.00000	 161.0	 12	    1.06000	    0.94000;
	44	 1	 16.32	 3.71	 0.0	 0.0	 1	    1.00000	    0.00000	 161.0	 2	    1.06000	    0.94000;
	45	 1	 20.02	 5.41	 0.0	 1.9	 1	    1.00000	    0.00000	 161.0	 2	    1.06000	    0.94000;
	46	 1	 65.31	 22.3	 0.0	 26.2	 1	    1.00000	    0.00000	 161.0	 10	    1.06000	    0.94000;
	47	 1	 4.82	 1.56	 0.0	 0.0	 1	    1.00000	    0.00000	 161.0	 2	    1.06000	    0.94000;
	48	 1	 33.76	 22.86	 0.0	 0.0	 1	    1.00000	    0.00000	 161.0	 10	    1.06000	    0.94000;
	49	 1	 6.82	 1.78	 0.0	 0.0	 1	    1.00000	    0.00000	 161.0	 2	    1.06000	    0.94000;
	50	 1	 99.7	 0.0	 0.0	 0.0	 1	    1.00000	    0.00000	 161.0	 12	    1.06000	    0.94000;
	51	 1	 0.0	 0.0	 0.0	 0.0	 1	    1.00000	    0.00000	 161.0	 3	    1.06000	    0.94000;
	52	 1	 218.2	 42.8	 0.0	 0.0	 1	    1.00000	    0.00000	 161.0	 3	    1.06000	    0.94000;
	53	 1	 0.0	 0.0	 0.0	 0.0	 1	    1.00000	    0.00000	 161.0	 10	    1.06000	    0.94000;
	54	 1	 70.34	 29.57	 0.0	 0.0	 1	    1.00000	    0.00000	 161.0	 10	    1.06000	    0.94000;
	55	 1	 0.0	 0.0	 0.0	 0.0	 1	    1.00000	    0.00000	 161.0	 1	    1.06000	    0.94000;
	56	 1	 25.29	 7.26	 0.0	 3.2	 1	    1.00000	    0.00000	 161.0	 7	    1.06000	    0.94000;
	57	 1	 48.48	 15.61	 0.0	 0.0	 1	    1.00000	    0.00000	 161.0	 1	    1.06000	    0.94000;
	58	 1	 0.0	 0.0	 0.0	 0.0	 1	    1.00000	    0.00000	 230.0	 10	    1.06000	    0.94000;
	59	 1	 84.43	 27.05	 0.0	 0.0	 1	    1.00000	    0.00000	 230.0	 10	    1.06000	    0.94000;
	60	 1	 244.0	 0.0	 0.0	 0.0	 1	    1.00000	    0.00000	 115.0	 12	    1.06000	    0.94000;
	61	 1	 0.0	 0.0	 0.0	 0.0	 1	    1.00000	    0.00000	 230.0	 10	    1.06000	    0.94000;
	62	 1	 -865.6	 0.0	 0.0	 0.0	 1	    1.00000	    0.00000	 230.0	 12	    1.06000	    0.94000;
	63	 1	 59.1	 0.0	 0.0	 0.0	 1	    1.00000	    0.00000	 230.0	 12	    1.06000	    0.94000;
	64	 1	 0.0	 0.0	 0.0	 0.0	 1	    1.00000	    0.00000	 345.0	 10	    1.06000	    0.94000;
	65	 1	 -26.3	 0.0	 0.0	 0.0	 1	    1.00000	    0.00000	 345.0	 12	    1.06000	    0.94000;
	66	 1	 0.0	 0.0	 0.0	 -50.0	 1	    1.00000	    0.00000	 345.0	 10	    1.06000	    0.94000;
	67	 1	 22.54	 7.03	 0.0	 6.0	 1	    1.00000	    0.00000	 161.0	 7	    1.06000	    0.94000;
	68	 1	 40.42	 12.68	 0.0	 12.0	 1	    1.00000	    0.00000	 161.0	 7	    1.06000	    0.94000;
	69	 1	 0.0	 0.0	 0.0	 0.0	 1	    1.00000	    0.00000	 161.0	 1	    1.06000	    0.94000;
	70	 1	 0.0	 0.0	 0.0	 0.0	 1	    1.00000	    0.00000	 161.0	 1	    1.06000	    0.94000;
	71	 1	 29.87	 11.93	 0.0	 12.0	 1	    1.00000	    0.00000	 161.0	 1	    1.06000	    0.94000;
	72	 1	 427.0	 0.0	 0.0	 0.0	 1	    1.00000	    0.00000	 161.0	 12	    1.06000	    0.94000;
	73	 2	 0.0	 0.0	 0.0	 0.0	 1	    1.00000	    0.00000	 20.0	 1	    1.06000	    0.94000;
	74	 1	 0.0	 0.0	 0.0	 0.0	 1	    1.00000	    0.00000	 345.0	 5	    1.06000	    0.94000;
	75	 1	 0.0	 0.0	 0.0	 -50.0	 1	    1.00000	    0.00000	 345.0	 8	    1.06000	    0.94000;
	76	 2	 0.0	 0.0	 0.0	 0.0	 1	    1.00000	    0.00000	 24.0	 1	    1.06000	    0.94000;
	77	 1	 26.41	 8.78	 0.0	 4.7	 1	    1.00000	    0.00000	 161.0	 1	    1.06000	    0.94000;
	78	 1	 79.12	 0.0	 0.0	 0.0	 1	    1.00000	    0.00000	 161.0	 5	    1.06000	    0.94000;
	79	 1	 0.0	 0.0	 0.0	 0.0	 1	    1.00000	    0.00000	 161.0	 5	    1.06000	    0.94000;
	80	 1	 15.76	 5.25	 0.0	 2.8	 1	    1.00000	    0.00000	 161.0	 1	    1.06000	    0.94000;
	81	 1	 50.88	 16.8	 0.0	 22.1	 1	    1.00000	    0.00000	 69.0	 1	    1.06000	    0.94000;
	82	 1	 62.28	 20.26	 0.0	 10.4	 1	    1.00000	    0.00000	 161.0	 1	    1.06000	    0.94000;
	83	 1	 0.0	 0.0	 0.0	 0.0	 1	    1.00000	    0.00000	 161.0	 1	    1.06000	    0.94000;
	84	 1	 37.9	 9.49	 0.0	 2.6	 1	    1.00000	    0.00000	 161.0	 2	    1.06000	    0.94000;
	85	 1	 40.52	 11.26	 0.0	 12.0	 1	    1.00000	    0.00000	 161.0	 1	    1.06000	    0.94000;
	86	 1	 50.73	 13.35	 0.0	 12.0	 1	    1.00000	    0.00000	 161.0	 2	    1.06000	    0.94000;
	87	 1	 16.91	 4.23	 0.0	 0.0	 1	    1.00000	    0.00000	 115.0	 2	    1.06000	    0.94000;
	88	 1	 60.6	 4.44	 0.0	 0.0	 1	    1.00000	    0.00000	 69.0	 4	    1.06000	    0.94000;
	89	 1	 0.0	 0.0	 0.0	 0.0	 1	    1.00000	    0.00000	 115.0	 2	    1.06000	    0.94000;
	90	 1	 50.21	 16.76	 0.0	 10.0	 1	    1.00000	    0.00000	 115.0	 2	    1.06000	    0.94000;
	91	 1	 51.24	 12.83	 0.0	 0.0	 1	    1.00000	    0.00000	 161.0	 2	    1.06000	    0.94000;
	92	 1	 36.12	 9.05	 0.0	 0.0	 1	    1.00000	    0.00000	 161.0	 2	    1.06000	    0.94000;
	93	 1	 103.8	 34.56	 0.0	 0.0	 1	    1.00000	    0.00000	 161.0	 2	    1.06000	    0.94000;
	94	 1	 164.0	 6.49	 0.0	 0.0	 1	    1.00000	    0.00000	 161.0	 5	    1.06000	    0.94000;
	95	 1	 117.2	 39.01	 0.0	 0.0	 1	    1.00000	    0.00000	 115.0	 2	    1.06000	    0.94000;
	96	 1	 119.2	 0.0	 0.0	 0.0	 1	    1.00000	    0.00000	 115.0	 2	    1.06000	    0.94000;
	97	 1	 22.84	 5.71	 0.0	 0.0	 1	    1.00000	    0.00000	 115.0	 2	    1.06000	    0.94000;
	98	 1	 151.1	 50.35	 0.0	 0.0	 1	    1.00000	    0.00000	 115.0	 2	    1.06000	    0.94000;
	99	 2	 0.0	 0.0	 0.0	 0.0	 1	    1.00000	    0.00000	 18.0	 2	    1.06000	    0.94000;
	100	 1	 23.21	 6.9	 0.0	 3.0	 1	    1.00000	    0.00000	 115.0	 2	    1.06000	    0.94000;
	101	 2	 0.0	 0.0	 0.0	 0.0	 1	    1.00000	    0.00000	 14.0	 2	    1.06000	    0.94000;
	102	 1	 16.54	 4.08	 0.0	 0.0	 1	    1.00000	    0.00000	 161.0	 2	    1.06000	    0.94000;
	103	 1	 322.0	 0.0	 0.0	 0.0	 1	    1.00000	    0.00000	 161.0	 12	    1.06000	    0.94000;
	104	 1	 31.52	 10.46	 0.0	 5.6	 1	    1.00000	    0.00000	 115.0	 2	    1.06000	    0.94000;
	105	 1	 24.84	 6.23	 0.0	 1.7	 1	    1.00000	    0.00000	 115.0	 2	    1.06000	    0.94000;
	106	 1	 0.0	 0.0	 0.0	 0.0	 1	    1.00000	    0.00000	 161.0	 4	    1.06000	    0.94000;
	107	 1	 35.41	 5.41	 0.0	 0.0	 1	    1.00000	    0.00000	 161.0	 4	    1.06000	    0.94000;
	108	 3	 0.0	 0.0	 0.0	 0.0	 1	    1.00000	    0.00000	 22.0	 2	    1.06000	    0.94000;
	109	 1	 0.0	 0.0	 0.0	 0.0	 1	    1.00000	    0.00000	 345.0	 5	    1.06000	    0.94000;
	110	 1	 0.0	 0.0	 0.0	 0.0	 1	    1.00000	    0.00000	 161.0	 3	    1.06000	    0.94000;
	111	 1	 65.41	 16.72	 0.0	 0.0	 1	    1.00000	    0.00000	 161.0	 3	    1.06000	    0.94000;
	112	 1	 0.0	 0.0	 0.0	 -50.0	 1	    1.00000	    0.00000	 345.0	 3	    1.06000	    0.94000;
	113	 1	 32.7	 0.0	 0.0	 0.0	 1	    1.00000	    0.00000	 161.0	 12	    1.06000	    0.94000;
	114	 2	 0.0	 0.0	 0.0	 0.0	 1	    1.00000	    0.00000	 14.0	 3	    1.06000	    0.94000;
	115	 1	 17.32	 3.34	 0.0	 0.0	 1	    1.00000	    0.00000	 161.0	 3	    1.06000	    0.94000;
	116	 1	 56.08	 11.2	 0.0	 0.0	 1	    1.00000	    0.00000	 161.0	 3	    1.06000	    0.94000;
	117	 1	 101.9	 20.06	 0.0	 0.0	 1	    1.00000	    0.00000	 161.0	 3	    1.06000	    0.94000;
	118	 2	 0.0	 0.0	 0.0	 0.0	 1	    1.00000	    0.00000	 14.0	 3	    1.06000	    0.94000;
	119	 1	 0.0	 0.0	 0.0	 0.0	 1	    1.00000	    0.00000	 345.0	 3	    1.06000	    0.94000;
	120	 1	 0.0	 0.0	 0.0	 0.0	 1	    1.00000	    0.00000	 345.0	 8	    1.06000	    0.94000;
	121	 2	 0.0	 0.0	 0.0	 0.0	 1	    1.00000	    0.00000	 24.0	 3	    1.06000	    0.94000;
	122	 1	 47.28	 9.36	 0.0	 0.0	 1	    1.00000	    0.00000	 161.0	 3	    1.06000	    0.94000;
	123	 1	 165.0	 0.0	 0.0	 0.0	 1	    1.00000	    0.00000	 161.0	 12	    1.06000	    0.94000;
	124	 1	 -571.0	 90.9	 0.0	 0.0	 1	    1.00000	    0.00000	 345.0	 12	    1.06000	    0.94000;
	125	 2	 2000.0	 0.0	 0.0	 0.0	 1	    1.00000	    0.00000	 345.0	 12	    1.06000	    0.94000;
	126	 1	 -467.0	 0.0	 0.0	 0.0	 1	    1.00000	    0.00000	 345.0	 12	    1.06000	    0.94000;
	127	 1	 -52.6	 0.0	 0.0	 0.0	 1	    1.00000	    0.00000	 345.0	 12	    1.06000	    0.94000;
	128	 1	 0.0	 0.0	 0.0	 0.0	 1	    1.00000	    0.00000	 345.0	 8	    1.06000	    0.94000;
	129	 1	 0.0	 0.0	 0.0	 0.0	 1	    1.00000	    0.00000	 345.0	 8	    1.06000	    0.94000;
	130	 2	 0.0	 0.0	 0.0	 0.0	 1	    1.00000	    0.00000	 22.0	 8	    1.06000	    0.94000;
	131	 2	 0.0	 0.0	 0.0	 0.0	 1	    1.00000	    0.00000	 18.0	 8	    1.06000	    0.94000;
	132	 1	 159.0	 0.0	 0.0	 0.0	 1	    1.00000	    0.00000	 161.0	 12	    1.06000	    0.94000;
	133	 1	 30.1	 6.02	 0.0	 0.0	 1	    1.00000	    0.00000	 69.0	 3	    1.06000	    0.94000;
	134	 1	 17.46	 3.34	 0.0	 0.0	 1	    1.00000	    0.00000	 161.0	 3	    1.06000	    0.94000;
	135	 1	 20.06	 4.01	 0.0	 0.0	 1	    1.00000	    0.00000	 69.0	 3	    1.06000	    0.94000;
	136	 1	 20.06	 4.01	 0.0	 0.0	 1	    1.00000	    0.00000	 69.0	 3	    1.06000	    0.94000;
	137	 1	 20.06	 4.01	 0.0	 0.0	 1	    1.00000	    0.00000	 69.0	 3	    1.06000	    0.94000;
	138	 1	 0.0	 0.0	 0.0	 0.0	 1	    1.00000	    0.00000	 69.0	 3	    1.06000	    0.94000;
	139	 1	 10.1	 2.01	 0.0	 0.0	 1	    1.00000	    0.00000	 69.0	 3	    1.06000	    0.94000;
	140	 1	 13.58	 2.68	 0.0	 0.0	 1	    1.00000	    0.00000	 69.0	 3	    1.06000	    0.94000;
	141	 1	 0.0	 0.0	 0.0	 0.0	 1	    1.00000	    0.00000	 161.0	 3	    1.06000	    0.94000;
	142	 1	 27.09	 5.35	 0.0	 0.0	 1	    1.00000	    0.00000	 69.0	 3	    1.06000	    0.94000;
	143	 1	 21.07	 4.01	 0.0	 0.0	 1	    1.00000	    0.00000	 69.0	 3	    1.06000	    0.94000;
	144	 1	 12.37	 2.01	 0.0	 0.0	 1	    1.00000	    0.00000	 69.0	 3	    1.06000	    0.94000;
	145	 1	 10.83	 2.21	 0.0	 0.0	 1	    1.00000	    0.00000	 69.0	 3	    1.06000	    0.94000;
	146	 1	 21.33	 4.01	 0.0	 0.0	 1	    1.00000	    0.00000	 69.0	 3	    1.06000	    0.94000;
	147	 1	 216.4	 42.8	 0.0	 0.0	 1	    1.00000	    0.00000	 161.0	 3	    1.06000	    0.94000;
	148	 1	 120.0	 24.0	 0.0	 0.0	 1	    1.00000	    0.00000	 69.0	 3	    1.06000	    0.94000;
	149	 1	 0.0	 0.0	 0.0	 0.0	 1	    1.00000	    0.00000	 161.0	 1	    1.06000	    0.94000;
	150	 1	 4.8	 1.6	 0.0	 0.0	 1	    1.00000	    0.00000	 161.0	 1	    1.06000	    0.94000;
	151	 1	 24.0	 8.0	 0.0	 0.0	 1	    1.00000	    0.00000	 161.0	 1	    1.06000	    0.94000;
	152	 1	 6.0	 0.0	 0.0	 0.0	 1	    1.00000	    0.00000	 161.0	 12	    1.06000	    0.94000;
	153	 1	 4.0	 1.6	 0.0	 0.0	 1	    1.00000	    0.00000	 69.0	 1	    1.06000	    0.94000;
	154	 1	 28.0	 9.6	 0.0	 6.0	 1	    1.00000	    0.00000	 69.0	 1	    1.06000	    0.94000;
	155	 1	 12.0	 4.0	 0.0	 0.0	 1	    1.00000	    0.00000	 69.0	 1	    1.06000	    0.94000;
	156	 1	 8.0	 2.4	 0.0	 0.0	 1	    1.00000	    0.00000	 69.0	 1	    1.06000	    0.94000;
	157	 1	 32.0	 10.4	 0.0	 0.0	 1	    1.00000	    0.00000	 69.0	 1	    1.06000	    0.94000;
	158	 1	 16.0	 5.6	 0.0	 3.0	 1	    1.00000	    0.00000	 69.0	 1	    1.06000	    0.94000;
	159	 1	 8.0	 2.4	 0.0	 0.0	 1	    1.00000	    0.00000	 69.0	 1	    1.06000	    0.94000;
	160	 1	 14.4	 4.8	 0.0	 3.0	 1	    1.00000	    0.00000	 69.0	 1	    1.06000	    0.94000;
	161	 1	 32.0	 10.4	 0.0	 0.0	 1	    1.00000	    0.00000	 161.0	 1	    1.06000	    0.94000;
	162	 1	 20.0	 6.4	 0.0	 0.0	 1	    1.00000	    0.00000	 161.0	 1	    1.06000	    0.94000;
];

%% generator data
%	bus	Pg	Qg	Qmax	Qmin	Vg	mBase	status	Pmax	Pmin
mpc.gen = [
	6	 573.5	 100.0	 400.0	 -200.0	 1.0	 100.0	 1	 1147.0	 0.0;
	73	 225.5	 77.0	 226.0	 -72.0	 1.0	 100.0	 1	 451.0	 0.0;
	76	 563.5	 197.0	 564.0	 -170.0	 1.0	 100.0	 1	 1127.0	 0.0;
	99	 183.0	 7.5	 75.6	 -60.6	 1.0	 100.0	 1	 366.0	 0.0;
	101	 55.0	 7.1	 38.6	 -24.4	 1.0	 100.0	 1	 110.0	 0.0;
	108	 559.5	 0.0	 560.0	 -560.0	 1.0	 100.0	 1	 1119.0	 0.0;
	114	 154.0	 4.0	 33.0	 -25.0	 1.0	 100.0	 1	 308.0	 0.0;
	118	 227.5	 28.0	 100.0	 -44.0	 1.0	 100.0	 1	 455.0	 0.0;
	121	 350.0	 65.0	 250.0	 -120.0	 1.0	 100.0	 1	 700.0	 0.0;
	125	 1263.0	 82.0	 1263.0	 -1099.0	 1.0	 100.0	 1	 2526.0	 0.0;
	130	 796.5	 72.0	 288.0	 -144.0	 1.0	 100.0	 1	 1593.0	 0.0;
	131	 565.0	 27.5	 320.0	 -265.0	 1.0	 100.0	 1	 1130.0	 0.0;
];

%% generator cost data
%	2	startup	shutdown	n	c(n-1)	...	c0
mpc.gencost = [
	2	 0.0	 0.0	 3	   0.000000	  23.532556	   0.000000;
	2	 0.0	 0.0	 3	   0.000000	  30.409326	   0.000000;
	2	 0.0	 0.0	 3	   0.000000	  19.040386	   0.000000;
	2	 0.0	 0.0	 3	   0.000000	  19.686835	   0.000000;
	2	 0.0	 0.0	 3	   0.000000	  38.489977	   0.000000;
	2	 0.0	 0.0	 3	   0.000000	   6.111723	   0.000000;
	2	 0.0	 0.0	 3	   0.000000	  22.934184	   0.000000;
	2	 0.0	 0.0	 3	   0.000000	  29.747826	   0.000000;
	2	 0.0	 0.0	 3	   0.000000	  20.377006	   0.000000;
	2	 0.0	 0.0	 3	   0.000000	   7.373082	   0.000000;
	2	 0.0	 0.0	 3	   0.000000	  15.234482	   0.000000;
	2	 0.0	 0.0	 3	   0.000000	  11.354352	   0.000000;
];

%% branch data
%	fbus	tbus	r	x	b	rateA	rateB	rateC	ratio	angle	status	angmin	angmax
mpc.branch = [
	1	 2	 0.0035	 0.0321	 0.5438	 613.0	 613.0	 613.0	 0.0	 0.0	 1	 -15.7833169076	 15.7833169076;
	1	 3	 0.0034	 0.0326	 0.7224	 895.0	 895.0	 895.0	 1.0	 0.0	 1	 -15.7833169076	 15.7833169076;
	1	 4	 0.0064	 0.0621	 0.987	 470.0	 470.0	 470.0	 0.0	 0.0	 1	 -15.7833169076	 15.7833169076;
	1	 5	 0.0011	 0.0119	 0.2012	 663.0	 663.0	 663.0	 0.0	 0.0	 1	 -15.7833169076	 15.7833169076;
	1	 6	 0.0	 0.0133	 0.0	 900.0	 2206.0	 2206.0	 1.0519	 0.0	 1	 -15.7833169076	 15.7833169076;
	2	 7	 0.0014	 0.0125	 0.2122	 605.0	 605.0	 605.0	 0.0	 0.0	 1	 -15.7833169076	 15.7833169076;
	2	 13	 0.0046	 0.0417	 0.7058	 610.0	 610.0	 610.0	 0.0	 0.0	 1	 -15.7833169076	 15.7833169076;
	3	 14	 0.2361	 1.0122	 0.0	 29.0	 29.0	 29.0	 0.0	 0.0	 1	 -15.7833169076	 15.7833169076;
	3	 50	 0.0389	 0.1699	 0.0	 169.0	 169.0	 169.0	 0.0	 0.0	 1	 -15.7833169076	 15.7833169076;
	3	 103	 0.1074	 1.8023	 0.0	 17.0	 17.0	 17.0	 0.0	 0.0	 1	 -15.7833169076	 15.7833169076;
	3	 123	 0.2883	 1.6719	 0.0	 18.0	 18.0	 18.0	 0.0	 0.0	 1	 -15.7833169076	 15.7833169076;
	3	 124	 0.014	 0.6483	 0.0	 46.0	 46.0	 46.0	 1.0	 0.0	 1	 -15.7833169076	 15.7833169076;
	3	 125	 0.0084	 0.1139	 0.0	 257.0	 257.0	 257.0	 1.0	 0.0	 1	 -15.7833169076	 15.7833169076;
	4	 112	 0.0059	 0.0568	 0.925	 514.0	 514.0	 514.0	 0.0	 0.0	 1	 -15.7833169076	 15.7833169076;
	4	 115	 0.0	 0.0185	 0.0	 500.0	 1586.0	 1586.0	 1.0	 0.0	 1	 -15.7833169076	 15.7833169076;
	4	 119	 0.0014	 0.0119	 0.205	 591.0	 591.0	 591.0	 0.0	 0.0	 1	 -15.7833169076	 15.7833169076;
	5	 120	 0.0022	 0.0224	 0.3792	 644.0	 644.0	 644.0	 0.0	 0.0	 1	 -15.7833169076	 15.7833169076;
	5	 129	 0.0022	 0.0268	 0.4612	 702.0	 702.0	 702.0	 0.0	 0.0	 1	 -15.7833169076	 15.7833169076;
	5	 131	 0.0	 0.0127	 0.0	 710.0	 2310.0	 2310.0	 1.0249	 0.0	 1	 -15.7833169076	 15.7833169076;
	7	 8	 0.0004	 0.0189	 0.0	 672.0	 1552.0	 1552.0	 0.9751	 0.0	 1	 -15.7833169076	 15.7833169076;
	7	 9	 0.0017	 0.0169	 0.2872	 637.0	 637.0	 637.0	 0.0	 0.0	 1	 -15.7833169076	 15.7833169076;
	8	 10	 0.4591	 1.0703	 0.0	 26.0	 26.0	 26.0	 1.0	 0.0	 1	 -15.7833169076	 15.7833169076;
	8	 12	 0.0106	 0.0574	 0.0	 159.0	 159.0	 159.0	 0.0	 0.0	 1	 -15.7833169076	 15.7833169076;
	8	 13	 0.1274	 0.4784	 0.0	 60.0	 60.0	 60.0	 1.0	 0.0	 1	 -15.7833169076	 15.7833169076;
	8	 14	 0.0473	 0.3956	 0.0	 74.0	 74.0	 74.0	 1.0	 0.0	 1	 -15.7833169076	 15.7833169076;
	8	 15	 0.5035	 1.7433	 0.0	 17.0	 17.0	 17.0	 1.0	 0.0	 1	 -15.7833169076	 15.7833169076;
	8	 132	 0.0252	 0.288	 0.0	 102.0	 102.0	 102.0	 1.0	 0.0	 1	 -15.7833169076	 15.7833169076;
	9	 75	 0.0013	 0.015	 0.2682	 684.0	 684.0	 684.0	 0.0	 0.0	 1	 -15.7833169076	 15.7833169076;
	10	 11	 0.0051	 0.037	 0.0716	 366.0	 366.0	 366.0	 0.0	 0.0	 1	 -15.7833169076	 15.7833169076;
	10	 13	 0.1299	 0.622	 0.0	 47.0	 47.0	 47.0	 1.0	 0.0	 1	 -15.7833169076	 15.7833169076;
	10	 15	 0.1275	 0.7033	 0.0	 42.0	 42.0	 42.0	 0.0	 0.0	 1	 -15.7833169076	 15.7833169076;
	10	 60	 0.2525	 1.2242	 0.0	 24.0	 24.0	 24.0	 1.0	 0.0	 1	 -15.7833169076	 15.7833169076;
	11	 15	 0.0285	 0.1793	 0.3484	 162.0	 162.0	 162.0	 0.0	 0.0	 1	 -15.7833169076	 15.7833169076;
	11	 46	 0.0142	 0.1225	 0.1876	 238.0	 238.0	 238.0	 1.0	 0.0	 1	 -15.7833169076	 15.7833169076;
	11	 58	 0.017	 0.107	 0.2074	 271.0	 271.0	 271.0	 0.0	 0.0	 1	 -15.7833169076	 15.7833169076;
	11	 59	 0.0071	 0.0471	 0.0852	 350.0	 350.0	 350.0	 0.0	 0.0	 1	 -15.7833169076	 15.7833169076;
	12	 2	 0.0008	 0.0377	 0.0	 336.0	 778.0	 778.0	 1.0252	 0.0	 1	 -15.7833169076	 15.7833169076;
	12	 13	 0.1038	 0.3137	 0.0	 89.0	 89.0	 89.0	 1.0	 0.0	 1	 -15.7833169076	 15.7833169076;
	12	 14	 0.1598	 0.6415	 0.0	 45.0	 45.0	 45.0	 1.0	 0.0	 1	 -15.7833169076	 15.7833169076;
	12	 132	 0.4486	 1.5773	 0.0	 18.0	 18.0	 18.0	 1.0	 0.0	 1	 -15.7833169076	 15.7833169076;
	13	 15	 0.044	 0.3227	 0.0	 91.0	 91.0	 91.0	 1.0	 0.0	 1	 -15.7833169076	 15.7833169076;
	13	 62	 0.0098	 0.1221	 0.0	 240.0	 240.0	 240.0	 1.0	 0.0	 1	 -15.7833169076	 15.7833169076;
	14	 72	 0.0107	 0.0828	 0.0	 264.0	 264.0	 264.0	 0.0	 0.0	 1	 -15.7833169076	 15.7833169076;
	14	 113	 0.0063	 0.0382	 0.0	 235.0	 235.0	 235.0	 0.0	 0.0	 1	 -15.7833169076	 15.7833169076;
	14	 132	 0.0057	 0.0374	 0.0	 244.0	 244.0	 244.0	 0.0	 0.0	 1	 -15.7833169076	 15.7833169076;
	15	 58	 0.0115	 0.0732	 0.142	 344.0	 344.0	 344.0	 0.0	 0.0	 1	 -15.7833169076	 15.7833169076;
	15	 60	 0.3907	 1.6753	 0.0	 18.0	 18.0	 18.0	 1.0	 0.0	 1	 -15.7833169076	 15.7833169076;
	15	 62	 0.0084	 0.0588	 0.0	 359.0	 359.0	 359.0	 0.0	 0.0	 1	 -15.7833169076	 15.7833169076;
	15	 63	 0.1704	 1.4555	 0.0	 21.0	 21.0	 21.0	 0.0	 0.0	 1	 -15.7833169076	 15.7833169076;
	16	 17	 0.6017	 1.4373	 0.0	 19.0	 19.0	 19.0	 0.0	 0.0	 1	 -15.7833169076	 15.7833169076;
	16	 18	 0.0297	 0.107	 0.0546	 184.0	 184.0	 184.0	 0.0	 0.0	 1	 -15.7833169076	 15.7833169076;
	16	 27	 0.1574	 0.8871	 0.0	 33.0	 33.0	 33.0	 1.0	 0.0	 1	 -15.7833169076	 15.7833169076;
	16	 126	 0.1053	 0.5132	 0.0	 56.0	 56.0	 56.0	 1.0	 0.0	 1	 -15.7833169076	 15.7833169076;
	16	 127	 0.0958	 0.5276	 0.0	 55.0	 55.0	 55.0	 1.0	 0.0	 1	 -15.7833169076	 15.7833169076;
	17	 18	 0.0213	 0.1013	 0.0642	 209.0	 209.0	 209.0	 0.0	 0.0	 1	 -15.7833169076	 15.7833169076;
	17	 19	 0.2314	 0.7678	 0.0	 37.0	 37.0	 37.0	 0.0	 0.0	 1	 -15.7833169076	 15.7833169076;
	17	 21	 0.0471	 0.2665	 0.0	 109.0	 109.0	 109.0	 0.0	 0.0	 1	 -15.7833169076	 15.7833169076;
	17	 127	 0.0287	 0.2637	 0.0	 111.0	 111.0	 111.0	 1.0	 0.0	 1	 -15.7833169076	 15.7833169076;
	18	 30	 0.0207	 0.1088	 0.052	 220.0	 220.0	 220.0	 0.0	 0.0	 1	 -15.7833169076	 15.7833169076;
	18	 32	 0.0234	 0.122	 0.0582	 219.0	 219.0	 219.0	 0.0	 0.0	 1	 -15.7833169076	 15.7833169076;
	18	 37	 0.0	 0.0456	 0.0	 225.0	 644.0	 644.0	 1.1193	 0.0	 1	 -15.7833169076	 15.7833169076;
	19	 21	 0.3867	 1.9005	 0.0	 16.0	 16.0	 16.0	 0.0	 0.0	 1	 -15.7833169076	 15.7833169076;
	19	 38	 0.0239	 0.125	 0.0596	 219.0	 219.0	 219.0	 0.0	 0.0	 1	 -15.7833169076	 15.7833169076;
	19	 43	 0.0603	 0.2572	 0.0	 112.0	 112.0	 112.0	 0.0	 0.0	 1	 -15.7833169076	 15.7833169076;
	19	 127	 0.1074	 0.6809	 0.0	 43.0	 43.0	 43.0	 1.0	 0.0	 1	 -15.7833169076	 15.7833169076;
	20	 53	 0.0	 0.114	 0.0	 75.0	 258.0	 258.0	 1.0	 0.0	 1	 -15.7833169076	 15.7833169076;
	20	 157	 0.0113	 0.0279	 0.0004	 44.0	 66.0	 66.0	 0.0	 0.0	 1	 -15.7833169076	 15.7833169076;
	21	 22	 0.0312	 0.1629	 0.0778	 177.0	 177.0	 177.0	 0.0	 0.0	 1	 -15.7833169076	 15.7833169076;
	21	 127	 0.0105	 0.6414	 0.0	 46.0	 46.0	 46.0	 1.0	 0.0	 1	 -15.7833169076	 15.7833169076;
	22	 38	 0.014	 0.054	 0.025	 190.0	 190.0	 190.0	 0.0	 0.0	 1	 -15.7833169076	 15.7833169076;
	22	 39	 0.0	 0.0493	 0.0	 225.0	 595.0	 595.0	 1.1081	 0.0	 1	 -15.7833169076	 15.7833169076;
	22	 40	 0.0188	 0.0717	 0.0328	 189.0	 189.0	 189.0	 0.0	 0.0	 1	 -15.7833169076	 15.7833169076;
	22	 41	 0.0172	 0.085	 0.0404	 213.0	 213.0	 213.0	 0.0	 0.0	 1	 -15.7833169076	 15.7833169076;
	23	 24	 0.0174	 0.0511	 0.023	 167.0	 167.0	 167.0	 0.0	 0.0	 1	 -15.7833169076	 15.7833169076;
	23	 60	 0.066	 0.3093	 0.0	 93.0	 93.0	 93.0	 1.0	 0.0	 1	 -15.7833169076	 15.7833169076;
	24	 25	 0.0	 0.034	 0.0	 225.0	 863.0	 863.0	 1.0217	 0.0	 1	 -15.7833169076	 15.7833169076;
	24	 28	 0.0249	 0.0725	 0.0202	 166.0	 166.0	 166.0	 0.0	 0.0	 1	 -15.7833169076	 15.7833169076;
	24	 45	 0.0137	 0.0725	 0.034	 220.0	 220.0	 220.0	 0.0	 0.0	 1	 -15.7833169076	 15.7833169076;
	25	 26	 0.0059	 0.0583	 0.9302	 501.0	 501.0	 501.0	 0.0	 0.0	 1	 -15.7833169076	 15.7833169076;
	25	 27	 0.0044	 0.041	 0.8384	 618.0	 618.0	 618.0	 0.0	 0.0	 1	 -15.7833169076	 15.7833169076;
	26	 74	 0.0063	 0.0607	 0.93	 481.0	 481.0	 481.0	 0.0	 0.0	 1	 -15.7833169076	 15.7833169076;
	26	 75	 0.003	 0.0322	 0.5038	 661.0	 661.0	 661.0	 0.0	 0.0	 1	 -15.7833169076	 15.7833169076;
	26	 76	 0.0	 0.0082	 0.0	 1250.0	 3578.0	 3578.0	 1.04	 0.0	 1	 -15.7833169076	 15.7833169076;
	27	 31	 0.0101	 0.1273	 0.0	 230.0	 230.0	 230.0	 1.0	 0.0	 1	 -15.7833169076	 15.7833169076;
	27	 62	 0.0173	 0.581	 0.0	 51.0	 51.0	 51.0	 1.0	 0.0	 1	 -15.7833169076	 15.7833169076;
	27	 65	 0.0105	 0.2764	 0.0	 107.0	 107.0	 107.0	 0.0	 0.0	 1	 -15.7833169076	 15.7833169076;
	27	 125	 0.035	 1.6845	 0.0	 18.0	 18.0	 18.0	 0.0	 0.0	 1	 -15.7833169076	 15.7833169076;
	27	 126	 0.0022	 0.0225	 0.0	 646.0	 646.0	 646.0	 0.0	 0.0	 1	 -15.7833169076	 15.7833169076;
	27	 127	 0.1506	 1.4355	 0.0	 21.0	 21.0	 21.0	 0.0	 0.0	 1	 -15.7833169076	 15.7833169076;
	28	 29	 0.024	 0.0965	 0.0444	 193.0	 193.0	 193.0	 0.0	 0.0	 1	 -15.7833169076	 15.7833169076;
	29	 30	 0.038	 0.15	 0.0696	 177.0	 190.0	 190.0	 0.0	 0.0	 1	 -15.7833169076	 15.7833169076;
	29	 31	 0.0206	 0.0833	 0.0384	 194.0	 194.0	 194.0	 0.0	 0.0	 1	 -15.7833169076	 15.7833169076;
	30	 32	 0.0249	 0.1005	 0.0458	 194.0	 194.0	 194.0	 0.0	 0.0	 1	 -15.7833169076	 15.7833169076;
	32	 33	 0.0114	 0.0448	 0.0208	 191.0	 191.0	 191.0	 0.0	 0.0	 1	 -15.7833169076	 15.7833169076;
	33	 34	 0.028	 0.114	 0.052	 180.0	 195.0	 195.0	 0.0	 0.0	 1	 -15.7833169076	 15.7833169076;
	33	 35	 0.0216	 0.107	 0.051	 214.0	 214.0	 214.0	 0.0	 0.0	 1	 -15.7833169076	 15.7833169076;
	33	 36	 0.0102	 0.0536	 0.0254	 220.0	 220.0	 220.0	 0.0	 0.0	 1	 -15.7833169076	 15.7833169076;
	34	 40	 0.0397	 0.1517	 0.069	 188.0	 188.0	 188.0	 0.0	 0.0	 1	 -15.7833169076	 15.7833169076;
	34	 77	 0.0235	 0.0896	 0.0408	 189.0	 189.0	 189.0	 0.0	 0.0	 1	 -15.7833169076	 15.7833169076;
	35	 40	 0.0271	 0.1341	 0.0638	 179.0	 213.0	 213.0	 0.0	 0.0	 1	 -15.7833169076	 15.7833169076;
	36	 67	 0.0176	 0.0924	 0.044	 220.0	 220.0	 220.0	 0.0	 0.0	 1	 -15.7833169076	 15.7833169076;
	37	 39	 0.0039	 0.0379	 0.67	 630.0	 630.0	 630.0	 0.0	 0.0	 1	 -15.7833169076	 15.7833169076;
	37	 126	 0.004	 0.0381	 0.67	 624.0	 624.0	 624.0	 0.0	 0.0	 1	 -15.7833169076	 15.7833169076;
	37	 127	 0.004	 0.0403	 0.6832	 641.0	 641.0	 641.0	 0.0	 0.0	 1	 -15.7833169076	 15.7833169076;
	39	 42	 0.002	 0.0186	 0.32	 617.0	 617.0	 617.0	 0.0	 0.0	 1	 -15.7833169076	 15.7833169076;
	40	 81	 0.03	 0.345	 0.0038	 81.0	 85.0	 85.0	 1.0	 0.0	 1	 -15.7833169076	 15.7833169076;
	40	 82	 0.004	 0.019	 0.0108	 209.0	 209.0	 209.0	 0.0	 0.0	 1	 -15.7833169076	 15.7833169076;
	41	 81	 0.037	 0.372	 0.0058	 79.0	 79.0	 79.0	 1.0	 0.0	 1	 -15.7833169076	 15.7833169076;
	41	 83	 0.0052	 0.0256	 0.0124	 213.0	 213.0	 213.0	 0.0	 0.0	 1	 -15.7833169076	 15.7833169076;
	41	 84	 0.0057	 0.058	 0.0292	 301.0	 301.0	 301.0	 0.0	 0.0	 1	 -15.7833169076	 15.7833169076;
	42	 109	 0.0019	 0.0196	 0.333	 648.0	 648.0	 648.0	 0.0	 0.0	 1	 -15.7833169076	 15.7833169076;
	43	 44	 0.0188	 0.0751	 0.0348	 193.0	 193.0	 193.0	 0.0	 0.0	 1	 -15.7833169076	 15.7833169076;
	43	 103	 0.0324	 0.1702	 0.0	 170.0	 170.0	 170.0	 0.0	 0.0	 1	 -15.7833169076	 15.7833169076;
	43	 124	 0.0293	 0.1766	 0.0	 164.0	 164.0	 164.0	 1.0	 0.0	 1	 -15.7833169076	 15.7833169076;
	43	 125	 0.1449	 0.6509	 0.0	 44.0	 44.0	 44.0	 1.0	 0.0	 1	 -15.7833169076	 15.7833169076;
	44	 102	 0.013	 0.05	 0.0236	 180.0	 189.0	 189.0	 0.0	 0.0	 1	 -15.7833169076	 15.7833169076;
	44	 103	 0.0127	 0.051	 0.0244	 180.0	 193.0	 193.0	 0.0	 0.0	 1	 -15.7833169076	 15.7833169076;
	45	 54	 0.0108	 0.057	 0.0272	 220.0	 220.0	 220.0	 0.0	 0.0	 1	 -15.7833169076	 15.7833169076;
	46	 47	 0.031	 0.1378	 0.0622	 177.0	 203.0	 203.0	 0.0	 0.0	 1	 -15.7833169076	 15.7833169076;
	47	 48	 0.0251	 0.1114	 0.0502	 177.0	 203.0	 203.0	 0.0	 0.0	 1	 -15.7833169076	 15.7833169076;
	47	 49	 0.003	 0.012	 0.0054	 193.0	 193.0	 193.0	 0.0	 0.0	 1	 -15.7833169076	 15.7833169076;
	48	 50	 0.0336	 0.166	 0.078	 174.0	 174.0	 174.0	 0.0	 0.0	 1	 -15.7833169076	 15.7833169076;
	48	 51	 0.042	 0.13	 0.057	 171.0	 171.0	 171.0	 0.0	 0.0	 1	 -15.7833169076	 15.7833169076;
	48	 52	 0.054	 0.168	 0.074	 167.0	 167.0	 167.0	 0.0	 0.0	 1	 -15.7833169076	 15.7833169076;
	49	 87	 0.014	 0.068	 0.0266	 423.0	 423.0	 423.0	 1.0	 0.0	 1	 -15.7833169076	 15.7833169076;
	50	 51	 0.03	 0.09	 0.041	 168.0	 168.0	 168.0	 0.0	 0.0	 1	 -15.7833169076	 15.7833169076;
	50	 123	 0.4071	 1.8543	 0.0	 16.0	 16.0	 16.0	 0.0	 0.0	 1	 -15.7833169076	 15.7833169076;
	50	 125	 0.1337	 0.6031	 0.0	 48.0	 48.0	 48.0	 1.0	 0.0	 1	 -15.7833169076	 15.7833169076;
	51	 141	 0.0323	 0.1	 0.0442	 171.0	 171.0	 171.0	 0.0	 0.0	 1	 -15.7833169076	 15.7833169076;
	52	 79	 0.0623	 0.2126	 0.094	 133.0	 133.0	 133.0	 0.0	 0.0	 1	 -15.7833169076	 15.7833169076;
	52	 106	 0.0231	 0.0717	 0.0314	 171.0	 171.0	 171.0	 0.0	 0.0	 1	 -15.7833169076	 15.7833169076;
	52	 116	 0.006	 0.0487	 0.0256	 270.0	 270.0	 270.0	 0.0	 0.0	 1	 -15.7833169076	 15.7833169076;
	52	 117	 0.0117	 0.0493	 0.023	 198.0	 198.0	 198.0	 0.0	 0.0	 1	 -15.7833169076	 15.7833169076;
	52	 118	 0.0	 0.052	 0.0	 200.0	 565.0	 565.0	 1.0429	 0.0	 1	 -15.7833169076	 15.7833169076;
	53	 11	 0.0005	 0.02	 0.0	 375.0	 1467.0	 1467.0	 1.0	 0.0	 1	 -15.7833169076	 15.7833169076;
	53	 54	 0.0275	 0.1961	 0.0956	 149.0	 149.0	 149.0	 0.0	 0.0	 1	 -15.7833169076	 15.7833169076;
	53	 55	 0.0005	 0.0026	 0.0022	 219.0	 219.0	 219.0	 0.0	 0.0	 1	 -15.7833169076	 15.7833169076;
	54	 56	 0.0174	 0.091	 0.043	 219.0	 219.0	 219.0	 0.0	 0.0	 1	 -15.7833169076	 15.7833169076;
	54	 57	 0.025	 0.1237	 0.0588	 213.0	 213.0	 213.0	 0.0	 0.0	 1	 -15.7833169076	 15.7833169076;
	55	 57	 0.0462	 0.1763	 0.0802	 161.0	 161.0	 161.0	 0.0	 0.0	 1	 -15.7833169076	 15.7833169076;
	55	 149	 0.0153	 0.0671	 0.0312	 202.0	 202.0	 202.0	 0.0	 0.0	 1	 -15.7833169076	 15.7833169076;
	55	 162	 0.004	 0.0189	 0.0098	 209.0	 209.0	 209.0	 0.0	 0.0	 1	 -15.7833169076	 15.7833169076;
	56	 67	 0.017	 0.0894	 0.0424	 220.0	 220.0	 220.0	 0.0	 0.0	 1	 -15.7833169076	 15.7833169076;
	57	 80	 0.0272	 0.1037	 0.0472	 180.0	 189.0	 189.0	 0.0	 0.0	 1	 -15.7833169076	 15.7833169076;
	58	 61	 0.0133	 0.1018	 0.1842	 276.0	 286.0	 286.0	 0.0	 0.0	 1	 -15.7833169076	 15.7833169076;
	59	 61	 0.0106	 0.0706	 0.121	 351.0	 351.0	 351.0	 0.0	 0.0	 1	 -15.7833169076	 15.7833169076;
	60	 61	 0.0027	 0.0653	 -0.0022	 100.0	 449.0	 449.0	 1.0252	 0.0	 1	 -15.7833169076	 15.7833169076;
	60	 61	 0.002	 0.0393	 0.0	 200.0	 746.0	 746.0	 1.0252	 0.0	 1	 -15.7833169076	 15.7833169076;
	60	 62	 0.3674	 0.964	 0.0	 29.0	 29.0	 29.0	 1.0	 0.0	 1	 -15.7833169076	 15.7833169076;
	60	 65	 0.1041	 0.4144	 0.0	 69.0	 69.0	 69.0	 1.0	 0.0	 1	 -15.7833169076	 15.7833169076;
	60	 126	 0.5367	 1.8295	 0.0	 16.0	 16.0	 16.0	 1.0	 0.0	 1	 -15.7833169076	 15.7833169076;
	61	 62	 0.0296	 0.2275	 0.3996	 128.0	 128.0	 128.0	 0.0	 0.0	 1	 -15.7833169076	 15.7833169076;
	61	 63	 0.0043	 0.0422	 0.0764	 345.0	 422.0	 422.0	 0.0	 0.0	 1	 -15.7833169076	 15.7833169076;
	62	 63	 0.0158	 0.1702	 0.0	 172.0	 172.0	 172.0	 0.0	 0.0	 1	 -15.7833169076	 15.7833169076;
	62	 65	 0.004	 0.074	 0.0	 396.0	 396.0	 396.0	 1.0	 0.0	 1	 -15.7833169076	 15.7833169076;
	62	 126	 0.0044	 0.2969	 0.0	 99.0	 99.0	 99.0	 1.0	 0.0	 1	 -15.7833169076	 15.7833169076;
	63	 65	 0.2409	 1.96	 0.0	 15.0	 15.0	 15.0	 1.0	 0.0	 1	 -15.7833169076	 15.7833169076;
	64	 65	 0.005	 0.0571	 0.9098	 512.0	 512.0	 512.0	 0.0	 0.0	 1	 -15.7833169076	 15.7833169076;
	64	 66	 0.0033	 0.0381	 0.6066	 684.0	 684.0	 684.0	 0.0	 0.0	 1	 -15.7833169076	 15.7833169076;
	65	 126	 0.0031	 0.1536	 0.0	 191.0	 191.0	 191.0	 0.0	 0.0	 1	 -15.7833169076	 15.7833169076;
	66	 11	 0.0	 0.0118	 0.0	 500.0	 2486.0	 2486.0	 1.0	 0.0	 1	 -15.7833169076	 15.7833169076;
	67	 68	 0.0193	 0.1013	 0.0482	 220.0	 220.0	 220.0	 0.0	 0.0	 1	 -15.7833169076	 15.7833169076;
	68	 69	 0.0068	 0.0353	 0.0168	 218.0	 218.0	 218.0	 0.0	 0.0	 1	 -15.7833169076	 15.7833169076;
	69	 77	 0.0098	 0.0374	 0.017	 189.0	 189.0	 189.0	 0.0	 0.0	 1	 -15.7833169076	 15.7833169076;
	69	 78	 0.0114	 0.0434	 0.0196	 180.0	 188.0	 188.0	 0.0	 0.0	 1	 -15.7833169076	 15.7833169076;
	69	 79	 0.0052	 0.0433	 0.022	 273.0	 273.0	 273.0	 0.0	 0.0	 1	 -15.7833169076	 15.7833169076;
	70	 73	 0.0	 0.0197	 0.0	 495.0	 1489.0	 1489.0	 1.0398	 0.0	 1	 -15.7833169076	 15.7833169076;
	70	 149	 0.0002	 0.0018	 0.001	 284.0	 284.0	 284.0	 0.0	 0.0	 1	 -15.7833169076	 15.7833169076;
	70	 149	 0.0002	 0.0018	 0.001	 284.0	 284.0	 284.0	 0.0	 0.0	 1	 -15.7833169076	 15.7833169076;
	71	 85	 0.0304	 0.1506	 0.0716	 191.0	 191.0	 191.0	 0.0	 0.0	 1	 -15.7833169076	 15.7833169076;
	71	 150	 0.0196	 0.097	 0.0462	 213.0	 213.0	 213.0	 0.0	 0.0	 1	 -15.7833169076	 15.7833169076;
	72	 113	 0.0022	 0.013	 0.0	 232.0	 232.0	 232.0	 0.0	 0.0	 1	 -15.7833169076	 15.7833169076;
	72	 132	 0.0028	 0.0168	 0.0	 234.0	 234.0	 234.0	 0.0	 0.0	 1	 -15.7833169076	 15.7833169076;
	72	 152	 0.0385	 0.18	 0.0	 160.0	 160.0	 160.0	 0.0	 0.0	 1	 -15.7833169076	 15.7833169076;
	74	 119	 0.0031	 0.031	 0.4822	 639.0	 639.0	 639.0	 0.0	 0.0	 1	 -15.7833169076	 15.7833169076;
	75	 128	 0.0008	 0.0087	 0.166	 665.0	 665.0	 665.0	 0.0	 0.0	 1	 -15.7833169076	 15.7833169076;
	75	 130	 0.0004	 0.0242	 0.0	 578.0	 1212.0	 1212.0	 1.0249	 0.0	 1	 -15.7833169076	 15.7833169076;
	78	 79	 0.0051	 0.0336	 0.0182	 245.0	 245.0	 245.0	 0.0	 0.0	 1	 -15.7833169076	 15.7833169076;
	78	 80	 0.0244	 0.093	 0.0422	 180.0	 189.0	 189.0	 0.0	 0.0	 1	 -15.7833169076	 15.7833169076;
	79	 74	 0.0	 0.018	 0.0	 500.0	 1630.0	 1630.0	 1.0248	 0.0	 1	 -15.7833169076	 15.7833169076;
	82	 83	 0.0053	 0.0249	 0.013	 208.0	 208.0	 208.0	 0.0	 0.0	 1	 -15.7833169076	 15.7833169076;
	84	 93	 0.0125	 0.0826	 0.0414	 245.0	 245.0	 245.0	 0.0	 0.0	 1	 -15.7833169076	 15.7833169076;
	85	 86	 0.0211	 0.1046	 0.0498	 214.0	 214.0	 214.0	 0.0	 0.0	 1	 -15.7833169076	 15.7833169076;
	86	 87	 0.028	 0.112	 0.0538	 255.0	 255.0	 255.0	 1.0	 0.0	 1	 -15.7833169076	 15.7833169076;
	86	 88	 0.044	 0.228	 0.109	 127.0	 127.0	 127.0	 1.0	 0.0	 1	 -15.7833169076	 15.7833169076;
	88	 96	 0.074	 0.25	 0.0142	 48.0	 113.0	 113.0	 1.0	 0.0	 1	 -15.7833169076	 15.7833169076;
	88	 106	 0.0079	 0.0468	 0.0232	 173.0	 619.0	 619.0	 1.0	 0.0	 1	 -15.7833169076	 15.7833169076;
	89	 86	 0.0	 0.057	 0.0	 90.0	 515.0	 515.0	 1.0252	 0.0	 1	 -15.7833169076	 15.7833169076;
	89	 90	 0.069	 0.134	 0.014	 69.0	 98.0	 98.0	 0.0	 0.0	 1	 -15.7833169076	 15.7833169076;
	90	 96	 0.1837	 0.359	 0.037	 73.0	 73.0	 73.0	 0.0	 0.0	 1	 -15.7833169076	 15.7833169076;
	91	 92	 0.0156	 0.0819	 0.0376	 220.0	 220.0	 220.0	 0.0	 0.0	 1	 -15.7833169076	 15.7833169076;
	91	 93	 0.0143	 0.0895	 0.045	 239.0	 239.0	 239.0	 0.0	 0.0	 1	 -15.7833169076	 15.7833169076;
	91	 94	 0.0145	 0.0957	 0.048	 245.0	 245.0	 245.0	 0.0	 0.0	 1	 -15.7833169076	 15.7833169076;
	92	 102	 0.015	 0.061	 0.0292	 194.0	 194.0	 194.0	 0.0	 0.0	 1	 -15.7833169076	 15.7833169076;
	93	 42	 0.0	 0.026	 0.0	 400.0	 1129.0	 1129.0	 1.0248	 0.0	 1	 -15.7833169076	 15.7833169076;
	93	 108	 0.0	 0.0154	 0.0	 600.0	 1905.0	 1905.0	 1.0503	 0.0	 1	 -15.7833169076	 15.7833169076;
	94	 103	 0.0227	 0.1333	 0.066	 217.0	 217.0	 217.0	 0.0	 0.0	 1	 -15.7833169076	 15.7833169076;
	94	 107	 0.0613	 0.1891	 0.0836	 148.0	 148.0	 148.0	 0.0	 0.0	 1	 -15.7833169076	 15.7833169076;
	94	 109	 0.0	 0.035	 0.0	 300.0	 839.0	 839.0	 1.0248	 0.0	 1	 -15.7833169076	 15.7833169076;
	95	 91	 0.0054	 0.0458	 -0.0036	 250.0	 637.0	 637.0	 1.02	 0.0	 1	 -15.7833169076	 15.7833169076;
	95	 96	 0.087	 0.212	 0.086	 109.0	 109.0	 109.0	 0.0	 0.0	 1	 -15.7833169076	 15.7833169076;
	95	 97	 0.1289	 0.2809	 0.0334	 58.0	 95.0	 95.0	 0.0	 0.0	 1	 -15.7833169076	 15.7833169076;
	95	 98	 0.0071	 0.043	 0.0224	 168.0	 168.0	 168.0	 0.0	 0.0	 1	 -15.7833169076	 15.7833169076;
	95	 99	 0.0	 0.0685	 0.0	 150.0	 429.0	 429.0	 1.0296	 0.0	 1	 -15.7833169076	 15.7833169076;
	96	 100	 0.069	 0.161	 0.0186	 69.0	 107.0	 107.0	 0.0	 0.0	 1	 -15.7833169076	 15.7833169076;
	96	 101	 0.0	 0.1031	 0.0	 96.0	 285.0	 285.0	 1.0296	 0.0	 1	 -15.7833169076	 15.7833169076;
	97	 44	 0.0051	 0.1007	 -0.0025	 84.0	 291.0	 291.0	 1.0252	 0.0	 1	 -15.7833169076	 15.7833169076;
	98	 93	 0.0006	 0.0214	 -0.0341	 504.0	 1371.0	 1371.0	 1.0252	 0.0	 1	 -15.7833169076	 15.7833169076;
	98	 105	 0.1485	 0.293	 0.031	 69.0	 90.0	 90.0	 0.0	 0.0	 1	 -15.7833169076	 15.7833169076;
	100	 104	 0.062	 0.145	 0.0166	 69.0	 107.0	 107.0	 0.0	 0.0	 1	 -15.7833169076	 15.7833169076;
	103	 123	 0.182	 0.751	 0.0	 38.0	 38.0	 38.0	 0.0	 0.0	 1	 -15.7833169076	 15.7833169076;
	103	 124	 0.0002	 0.0167	 0.0	 1757.0	 1757.0	 1757.0	 1.0	 0.0	 1	 -15.7833169076	 15.7833169076;
	103	 125	 0.0279	 0.1972	 0.0	 148.0	 148.0	 148.0	 1.0	 0.0	 1	 -15.7833169076	 15.7833169076;
	104	 34	 0.008	 0.0637	 -0.0033	 106.0	 457.0	 457.0	 1.0	 0.0	 1	 -15.7833169076	 15.7833169076;
	105	 38	 0.0	 0.116	 0.0	 45.0	 253.0	 253.0	 1.0252	 0.0	 1	 -15.7833169076	 15.7833169076;
	106	 107	 0.0196	 0.0611	 0.0268	 171.0	 171.0	 171.0	 0.0	 0.0	 1	 -15.7833169076	 15.7833169076;
	107	 122	 0.013	 0.0621	 0.0296	 210.0	 210.0	 210.0	 0.0	 0.0	 1	 -15.7833169076	 15.7833169076;
	109	 119	 0.006	 0.0577	 0.929	 506.0	 506.0	 506.0	 0.0	 0.0	 1	 -15.7833169076	 15.7833169076;
	109	 124	 0.002	 0.0222	 0.3782	 671.0	 671.0	 671.0	 0.0	 0.0	 1	 -15.7833169076	 15.7833169076;
	109	 125	 0.007	 0.062	 1.0	 471.0	 471.0	 471.0	 0.0	 0.0	 1	 -15.7833169076	 15.7833169076;
	110	 111	 0.023	 0.099	 0.046	 180.0	 200.0	 200.0	 0.0	 0.0	 1	 -15.7833169076	 15.7833169076;
	110	 112	 0.0	 0.0185	 0.0	 500.0	 1586.0	 1586.0	 1.0	 0.0	 1	 -15.7833169076	 15.7833169076;
	110	 114	 0.0	 0.0768	 0.0	 150.0	 382.0	 382.0	 1.0398	 0.0	 1	 -15.7833169076	 15.7833169076;
	110	 134	 0.0032	 0.0256	 0.0134	 268.0	 268.0	 268.0	 0.0	 0.0	 1	 -15.7833169076	 15.7833169076;
	110	 141	 0.021	 0.0649	 0.0288	 171.0	 171.0	 171.0	 0.0	 0.0	 1	 -15.7833169076	 15.7833169076;
	111	 115	 0.0527	 0.2215	 0.103	 129.0	 129.0	 129.0	 0.0	 0.0	 1	 -15.7833169076	 15.7833169076;
	112	 120	 0.0005	 0.0044	 0.072	 601.0	 601.0	 601.0	 0.0	 0.0	 1	 -15.7833169076	 15.7833169076;
	112	 121	 0.0	 0.019	 0.0	 720.0	 1544.0	 1544.0	 1.0499	 0.0	 1	 -15.7833169076	 15.7833169076;
	113	 132	 0.0459	 0.2911	 0.0	 100.0	 100.0	 100.0	 0.0	 0.0	 1	 -15.7833169076	 15.7833169076;
	113	 134	 0.0008	 0.0072	 0.0038	 284.0	 284.0	 284.0	 0.0	 0.0	 1	 -15.7833169076	 15.7833169076;
	115	 117	 0.0019	 0.0154	 0.033	 270.0	 270.0	 270.0	 0.0	 0.0	 1	 -15.7833169076	 15.7833169076;
	116	 117	 0.0048	 0.0391	 0.0214	 271.0	 271.0	 271.0	 0.0	 0.0	 1	 -15.7833169076	 15.7833169076;
	116	 119	 0.0	 0.009	 0.0	 1000.0	 3260.0	 3260.0	 1.0248	 0.0	 1	 -15.7833169076	 15.7833169076;
	116	 147	 0.0035	 0.0286	 0.0156	 271.0	 271.0	 271.0	 0.0	 0.0	 1	 -15.7833169076	 15.7833169076;
	117	 147	 0.0022	 0.0175	 0.01	 268.0	 268.0	 268.0	 0.0	 0.0	 1	 -15.7833169076	 15.7833169076;
	120	 14	 0.0003	 0.0188	 0.0	 500.0	 1561.0	 1561.0	 0.9751	 0.0	 1	 -15.7833169076	 15.7833169076;
	120	 128	 0.0004	 0.0051	 0.1	 717.0	 717.0	 717.0	 0.0	 0.0	 1	 -15.7833169076	 15.7833169076;
	120	 129	 0.0003	 0.0038	 0.0652	 715.0	 715.0	 715.0	 0.0	 0.0	 1	 -15.7833169076	 15.7833169076;
	122	 123	 0.0175	 0.0835	 0.0398	 210.0	 210.0	 210.0	 0.0	 0.0	 1	 -15.7833169076	 15.7833169076;
	123	 125	 0.0423	 0.2441	 0.0	 119.0	 119.0	 119.0	 1.0	 0.0	 1	 -15.7833169076	 15.7833169076;
	124	 125	 0.0113	 0.1585	 0.0	 185.0	 185.0	 185.0	 0.0	 0.0	 1	 -15.7833169076	 15.7833169076;
	124	 126	 0.0577	 0.8256	 0.0	 36.0	 36.0	 36.0	 0.0	 0.0	 1	 -15.7833169076	 15.7833169076;
	125	 126	 0.0201	 0.5915	 0.0	 50.0	 50.0	 50.0	 0.0	 0.0	 1	 -15.7833169076	 15.7833169076;
	126	 127	 0.0877	 0.7049	 0.0	 42.0	 42.0	 42.0	 0.0	 0.0	 1	 -15.7833169076	 15.7833169076;
	128	 72	 0.0004	 0.018	 0.0	 500.0	 1630.0	 1630.0	 1.0	 0.0	 1	 -15.7833169076	 15.7833169076;
	129	 132	 0.0004	 0.0198	 0.0	 500.0	 1482.0	 1482.0	 1.0	 0.0	 1	 -15.7833169076	 15.7833169076;
	133	 134	 0.0	 0.041	 0.0	 160.0	 716.0	 716.0	 1.0249	 0.0	 1	 -15.7833169076	 15.7833169076;
	133	 135	 0.0109	 0.0259	 0.0004	 44.0	 65.0	 65.0	 0.0	 0.0	 1	 -15.7833169076	 15.7833169076;
	133	 136	 0.039	 0.099	 0.0016	 39.0	 67.0	 67.0	 0.0	 0.0	 1	 -15.7833169076	 15.7833169076;
	133	 137	 0.0134	 0.0504	 0.001	 60.0	 81.0	 81.0	 0.0	 0.0	 1	 -15.7833169076	 15.7833169076;
	135	 138	 0.0466	 0.1182	 0.002	 39.0	 67.0	 67.0	 0.0	 0.0	 1	 -15.7833169076	 15.7833169076;
	136	 139	 0.026	 0.065	 0.001	 39.0	 66.0	 66.0	 0.0	 0.0	 1	 -15.7833169076	 15.7833169076;
	137	 140	 0.0041	 0.0156	 0.0004	 60.0	 81.0	 81.0	 0.0	 0.0	 1	 -15.7833169076	 15.7833169076;
	138	 110	 0.0	 0.041	 0.0	 160.0	 716.0	 716.0	 1.0	 0.0	 1	 -15.7833169076	 15.7833169076;
	138	 139	 0.026	 0.065	 0.001	 39.0	 66.0	 66.0	 0.0	 0.0	 1	 -15.7833169076	 15.7833169076;
	138	 140	 0.0251	 0.0941	 0.0018	 60.0	 80.0	 80.0	 0.0	 0.0	 1	 -15.7833169076	 15.7833169076;
	138	 145	 0.0923	 0.2338	 0.0038	 39.0	 67.0	 67.0	 0.0	 0.0	 1	 -15.7833169076	 15.7833169076;
	142	 51	 0.0	 0.1728	 0.0	 83.0	 170.0	 170.0	 1.07	 0.0	 1	 -15.7833169076	 15.7833169076;
	142	 143	 0.1582	 0.3919	 0.0068	 44.0	 66.0	 66.0	 0.0	 0.0	 1	 -15.7833169076	 15.7833169076;
	142	 146	 0.1618	 0.3861	 0.007	 44.0	 65.0	 65.0	 0.0	 0.0	 1	 -15.7833169076	 15.7833169076;
	143	 144	 0.0927	 0.2322	 0.002	 44.0	 66.0	 66.0	 0.0	 0.0	 1	 -15.7833169076	 15.7833169076;
	144	 141	 0.0	 0.082	 0.0	 80.0	 358.0	 358.0	 1.0249	 0.0	 1	 -15.7833169076	 15.7833169076;
	144	 145	 0.089	 0.221	 0.0032	 39.0	 66.0	 66.0	 0.0	 0.0	 1	 -15.7833169076	 15.7833169076;
	144	 146	 0.068	 0.2906	 0.0058	 60.0	 86.0	 86.0	 0.0	 0.0	 1	 -15.7833169076	 15.7833169076;
	148	 116	 0.0	 0.041	 0.0	 160.0	 716.0	 716.0	 1.0	 0.0	 1	 -15.7833169076	 15.7833169076;
	149	 26	 0.0	 0.0386	 0.0	 300.0	 760.0	 760.0	 1.0	 0.0	 1	 -15.7833169076	 15.7833169076;
	149	 26	 0.0	 0.0386	 0.0	 300.0	 760.0	 760.0	 1.0	 0.0	 1	 -15.7833169076	 15.7833169076;
	149	 150	 0.001	 0.0085	 0.002	 276.0	 276.0	 276.0	 0.0	 0.0	 1	 -15.7833169076	 15.7833169076;
	149	 151	 0.0039	 0.0262	 0.0138	 247.0	 247.0	 247.0	 0.0	 0.0	 1	 -15.7833169076	 15.7833169076;
	149	 152	 0.0253	 0.1168	 0.0544	 207.0	 207.0	 207.0	 0.0	 0.0	 1	 -15.7833169076	 15.7833169076;
	151	 161	 0.0021	 0.0138	 0.0074	 244.0	 244.0	 244.0	 0.0	 0.0	 1	 -15.7833169076	 15.7833169076;
	153	 70	 0.0	 0.0916	 0.0	 93.0	 321.0	 321.0	 1.0	 0.0	 1	 -15.7833169076	 15.7833169076;
	153	 70	 0.0	 0.0916	 0.0	 93.0	 321.0	 321.0	 1.0	 0.0	 1	 -15.7833169076	 15.7833169076;
	153	 154	 0.071	 0.2841	 0.0054	 50.0	 83.0	 83.0	 0.0	 0.0	 1	 -15.7833169076	 15.7833169076;
	153	 155	 0.043	 0.1856	 0.0038	 66.0	 86.0	 86.0	 0.0	 0.0	 1	 -15.7833169076	 15.7833169076;
	154	 156	 0.0155	 0.0379	 0.0008	 50.0	 66.0	 66.0	 0.0	 0.0	 1	 -15.7833169076	 15.7833169076;
	154	 160	 0.0102	 0.0429	 0.001	 50.0	 85.0	 85.0	 0.0	 0.0	 1	 -15.7833169076	 15.7833169076;
	155	 156	 0.0176	 0.0822	 0.0014	 66.0	 89.0	 89.0	 0.0	 0.0	 1	 -15.7833169076	 15.7833169076;
	156	 157	 0.053	 0.1273	 0.0022	 33.0	 65.0	 65.0	 0.0	 0.0	 1	 -15.7833169076	 15.7833169076;
	157	 55	 0.0	 0.0827	 0.0	 150.0	 355.0	 355.0	 1.0	 0.0	 1	 -15.7833169076	 15.7833169076;
	157	 158	 0.0489	 0.1404	 0.0028	 50.0	 71.0	 71.0	 0.0	 0.0	 1	 -15.7833169076	 15.7833169076;
	158	 159	 0.0339	 0.0664	 0.0012	 50.0	 59.0	 59.0	 0.0	 0.0	 1	 -15.7833169076	 15.7833169076;
	159	 160	 0.019	 0.0811	 0.012	 50.0	 86.0	 86.0	 0.0	 0.0	 1	 -15.7833169076	 15.7833169076;
	161	 162	 0.0022	 0.0103	 0.0054	 208.0	 208.0	 208.0	 0.0	 0.0	 1	 -15.7833169076	 15.7833169076;
];

% INFO    : === Translation Options ===
% INFO    : Phase Angle Bound:           15.7833169076 (deg.)
% INFO    : 
% INFO    : === Generator Bounds Update Notes ===
% INFO    : 
% INFO    : === Base KV Replacement Notes ===
% INFO    : 
% INFO    : === Transformer Setting Replacement Notes ===
% INFO    : 
% INFO    : === Line Capacity Monotonicity Notes ===
% INFO    : 
% INFO    : === Writing Matpower Case File Notes ===
